Load_IEEE69_test.dss
New Load.1 Bus1=1 kW=0.0 kvar=0.0 conn=Wye Model=1 kv=12.66
New Load.2 Bus1=2 kW=0.0 kvar=0.0 conn=Wye Model=1 kv=12.66
New Load.3 Bus1=3 kW=0.0 kvar=0.0 conn=Wye Model=1 kv=12.66
New Load.4 Bus1=4 kW=0.0 kvar=0.0 conn=Wye Model=1 kv=12.66
New Load.5 Bus1=5 kW=0.0 kvar=0.0 conn=Wye Model=1 kv=12.66
New Load.6 Bus1=6 kW=0.0 kvar=0.0 conn=Wye Model=1 kv=12.66
New Load.7 Bus1=7 kW=2.6 kvar=2.2 conn=Wye Model=1 kv=12.66
New Load.8 Bus1=8 kW=40.4 kvar=30.0 conn=Wye Model=1 kv=12.66
New Load.9 Bus1=9 kW=75.0 kvar=54.0 conn=Wye Model=1 kv=12.66
New Load.10 Bus1=10 kW=30.0 kvar=22.0 conn=Wye Model=1 kv=12.66
New Load.11 Bus1=11 kW=28.0 kvar=19.0 conn=Wye Model=1 kv=12.66
New Load.12 Bus1=12 kW=145.0 kvar=104.0 conn=Wye Model=1 kv=12.66
New Load.13 Bus1=13 kW=145.0 kvar=104.0 conn=Wye Model=1 kv=12.66
New Load.14 Bus1=14 kW=8.0 kvar=5.5 conn=Wye Model=1 kv=12.66
New Load.15 Bus1=15 kW=8.0 kvar=5.5 conn=Wye Model=1 kv=12.66
New Load.16 Bus1=16 kW=0.0 kvar=0.0 conn=Wye Model=1 kv=12.66
New Load.17 Bus1=17 kW=45.5 kvar=30.0 conn=Wye Model=1 kv=12.66
New Load.18 Bus1=18 kW=60.0 kvar=35.0 conn=Wye Model=1 kv=12.66
New Load.19 Bus1=19 kW=60.0 kvar=35.0 conn=Wye Model=1 kv=12.66
New Load.20 Bus1=20 kW=0.0 kvar=0.0 conn=Wye Model=1 kv=12.66
New Load.21 Bus1=21 kW=1.0 kvar=0.6 conn=Wye Model=1 kv=12.66
New Load.22 Bus1=22 kW=114.0 kvar=81.0 conn=Wye Model=1 kv=12.66
New Load.23 Bus1=23 kW=5.3 kvar=3.5 conn=Wye Model=1 kv=12.66
New Load.24 Bus1=24 kW=0.0 kvar=0.0 conn=Wye Model=1 kv=12.66
New Load.25 Bus1=25 kW=28.0 kvar=20.0 conn=Wye Model=1 kv=12.66
New Load.26 Bus1=26 kW=0.0 kvar=0.0 conn=Wye Model=1 kv=12.66
New Load.27 Bus1=27 kW=14.0 kvar=10.0 conn=Wye Model=1 kv=12.66
New Load.28 Bus1=28 kW=14.0 kvar=10.0 conn=Wye Model=1 kv=12.66
New Load.29 Bus1=29 kW=26.0 kvar=18.6 conn=Wye Model=1 kv=12.66
New Load.30 Bus1=30 kW=26.0 kvar=18.6 conn=Wye Model=1 kv=12.66
New Load.31 Bus1=31 kW=0.0 kvar=0.0 conn=Wye Model=1 kv=12.66
New Load.32 Bus1=32 kW=0.0 kvar=0.0 conn=Wye Model=1 kv=12.66
New Load.33 Bus1=33 kW=0.0 kvar=0.0 conn=Wye Model=1 kv=12.66
New Load.34 Bus1=34 kW=14.0 kvar=10.0 conn=Wye Model=1 kv=12.66
New Load.35 Bus1=35 kW=19.5 kvar=14.0 conn=Wye Model=1 kv=12.66
New Load.36 Bus1=36 kW=6.0 kvar=4.0 conn=Wye Model=1 kv=12.66
New Load.37 Bus1=37 kW=0.0 kvar=0.0 conn=Wye Model=1 kv=12.66
New Load.38 Bus1=38 kW=79.0 kvar=56.4 conn=Wye Model=1 kv=12.66
New Load.39 Bus1=39 kW=384.7 kvar=274.5 conn=Wye Model=1 kv=12.66
New Load.40 Bus1=40 kW=384.7 kvar=274.5 conn=Wye Model=1 kv=12.66
New Load.41 Bus1=41 kW=40.5 kvar=28.3 conn=Wye Model=1 kv=12.66
New Load.42 Bus1=42 kW=3.6 kvar=2.7 conn=Wye Model=1 kv=12.66
New Load.43 Bus1=43 kW=4.35 kvar=3.5 conn=Wye Model=1 kv=12.66
New Load.44 Bus1=44 kW=26.4 kvar=19.0 conn=Wye Model=1 kv=12.66
New Load.45 Bus1=45 kW=24.0 kvar=17.2 conn=Wye Model=1 kv=12.66
New Load.46 Bus1=46 kW=0.0 kvar=0.0 conn=Wye Model=1 kv=12.66
New Load.47 Bus1=47 kW=0.0 kvar=0.0 conn=Wye Model=1 kv=12.66
New Load.48 Bus1=48 kW=0.0 kvar=0.0 conn=Wye Model=1 kv=12.66
New Load.49 Bus1=49 kW=100.0 kvar=72.0 conn=Wye Model=1 kv=12.66
New Load.50 Bus1=50 kW=0.0 kvar=0.0 conn=Wye Model=1 kv=12.66
New Load.51 Bus1=51 kW=1244.0 kvar=888.0 conn=Wye Model=1 kv=12.66
New Load.52 Bus1=52 kW=32.0 kvar=23.0 conn=Wye Model=1 kv=12.66
New Load.53 Bus1=53 kW=0.0 kvar=0.0 conn=Wye Model=1 kv=12.66
New Load.54 Bus1=54 kW=227.0 kvar=162.0 conn=Wye Model=1 kv=12.66
New Load.55 Bus1=55 kW=59.0 kvar=42.0 conn=Wye Model=1 kv=12.66
New Load.56 Bus1=56 kW=18.0 kvar=13.0 conn=Wye Model=1 kv=12.66
New Load.57 Bus1=57 kW=18.0 kvar=13.0 conn=Wye Model=1 kv=12.66
New Load.58 Bus1=58 kW=28.0 kvar=20.0 conn=Wye Model=1 kv=12.66
New Load.59 Bus1=59 kW=28.0 kvar=20.0 conn=Wye Model=1 kv=12.66
New Load.60 Bus1=60 kW=26.0 kvar=18.55 conn=Wye Model=1 kv=12.66
New Load.61 Bus1=61 kW=26.0 kvar=18.55 conn=Wye Model=1 kv=12.66
New Load.62 Bus1=62 kW=0.0 kvar=0.0 conn=Wye Model=1 kv=12.66
New Load.63 Bus1=63 kW=24.0 kvar=17.0 conn=Wye Model=1 kv=12.66
New Load.64 Bus1=64 kW=24.0 kvar=17.0 conn=Wye Model=1 kv=12.66
New Load.65 Bus1=65 kW=1.2 kvar=1.0 conn=Wye Model=1 kv=12.66
New Load.66 Bus1=66 kW=0.0 kvar=0.0 conn=Wye Model=1 kv=12.66
New Load.67 Bus1=67 kW=6.0 kvar=4.3 conn=Wye Model=1 kv=12.66
New Load.68 Bus1=68 kW=0.0 kvar=0.0 conn=Wye Model=1 kv=12.66
New Load.69 Bus1=69 kW=39.22 kvar=26.3 conn=Wye Model=1 kv=12.66
New Load.70 Bus1=70 kW=39.22 kvar=26.3 conn=Wye Model=1 kv=12.66
